
**** 02/09/14 11:39:44 ************** PSpice Lite (Mar 2000) *****************

 ;


 ****     CIRCUIT DESCRIPTION


******************************************************************************



.lib eval.lib
xa 3 2 7 4 6 ua741
vp 7 0 +15
vn 4 0 -15
r1 2 5 1k
rs 9 10 300
d1 6 8 d1n4002
c1 5 9 .02u
rl 8 0 10k
vin 10 0 sin 0 2 1k
vref 3 0 1
.tran .1m 2m
.probe 
.end

**** 02/09/14 11:39:44 ************** PSpice Lite (Mar 2000) *****************

 ;


 ****     Diode MODEL PARAMETERS


******************************************************************************




               d1n4002         xa.dx           
          IS   14.110000E-09  800.000000E-18 
           N    1.984                        
         ISR  100.000000E-12                 
         IKF   94.81                         
          BV  100.1                          
         IBV   10                            
          RS     .03389         1            
          TT    4.761000E-06                 
         CJO   51.170000E-12                 
          VJ     .3905                       
           M     .2762                       


**** 02/09/14 11:39:44 ************** PSpice Lite (Mar 2000) *****************

 ;


 ****     BJT MODEL PARAMETERS


******************************************************************************




               xa.qx           
               NPN             
          IS  800.000000E-18 
          BF   93.75         
          NF    1            
          BR    1            
          NR    1            
          CN    2.42         
           D     .87         


**** 02/09/14 11:39:44 ************** PSpice Lite (Mar 2000) *****************

 ;


 ****     INITIAL TRANSIENT SOLUTION       TEMPERATURE =   27.000 DEG C


******************************************************************************



 NODE   VOLTAGE     NODE   VOLTAGE     NODE   VOLTAGE     NODE   VOLTAGE


(    2)     .7309  (    3)    1.0000  (    4)  -15.0000  (    5)     .7309      

(    6)   14.6130  (    7)   15.0000  (    8)   14.0230  (    9)    0.0000      

(   10)    0.0000  ( xa.6)   -1.5022  ( xa.7)   14.6840  ( xa.8)   14.6840      

( xa.9)    0.0000  (xa.10)     .3603  (xa.11)   15.0000  (xa.12)   14.9200      

(xa.13)     .3603  (xa.14)     .3882  (xa.53)   14.0000  (xa.54)  -14.0000      

(xa.90)    1.4182  (xa.91)   40.0000  (xa.92)  -40.0000  (xa.99)    0.0000  




    VOLTAGE SOURCE CURRENTS
    NAME         CURRENT

    vp          -1.651E-03
    vn           1.667E-03
    vin          0.000E+00
    vref        -1.603E-07
    xa.vb       -1.502E-05
    xa.vc       -1.592E-05
    xa.ve        2.861E-11
    xa.vlim      1.418E-03
    xa.vlp      -3.858E-11
    xa.vln      -4.142E-11

    TOTAL POWER DISSIPATION   4.98E-02  WATTS



          JOB CONCLUDED

          TOTAL JOB TIME             .02
