
**** 02/09/14 11:48:09 ************** PSpice Lite (Mar 2000) *****************

 ;


 ****     CIRCUIT DESCRIPTION


******************************************************************************



.lib eval.lib
xa 1 5 2 3 4 ua741
vp 2 0 dc 15
vn 3 0 dc -15
vs 7 0 sin(.001 1k)
r1 6 5 1k
rs 1 7 300
rl 4 0 10k
c1 6 0 .51u
d1 5 1 d1n4002
d2 1 5 d1n4002
.tran 0.1m 1k
.probe 
.end

**** 02/09/14 11:48:09 ************** PSpice Lite (Mar 2000) *****************

 ;


 ****     Diode MODEL PARAMETERS


******************************************************************************




               d1n4002         xa.dx           
          IS   14.110000E-09  800.000000E-18 
           N    1.984                        
         ISR  100.000000E-12                 
         IKF   94.81                         
          BV  100.1                          
         IBV   10                            
          RS     .03389         1            
          TT    4.761000E-06                 
         CJO   51.170000E-12                 
          VJ     .3905                       
           M     .2762                       


**** 02/09/14 11:48:09 ************** PSpice Lite (Mar 2000) *****************

 ;


 ****     BJT MODEL PARAMETERS


******************************************************************************




               xa.qx           
               NPN             
          IS  800.000000E-18 
          BF   93.75         
          NF    1            
          BR    1            
          NR    1            
          CN    2.42         
           D     .87         


**** 02/09/14 11:48:09 ************** PSpice Lite (Mar 2000) *****************

 ;


 ****     INITIAL TRANSIENT SOLUTION       TEMPERATURE =   27.000 DEG C


******************************************************************************



 NODE   VOLTAGE     NODE   VOLTAGE     NODE   VOLTAGE     NODE   VOLTAGE


(    1) 952.2E-06  (    2)   15.0000  (    3)  -15.0000  (    4)   14.5990      

(    5)    -.0500  (    6)    -.0500  (    7)     .0010  ( xa.6)    -.8755      

( xa.7)   14.6730  ( xa.8)   14.6730  ( xa.9)    0.0000  (xa.10)    -.6268      

(xa.11)   14.9840  (xa.12)   14.9370  (xa.13)    -.6210  (xa.14)    -.6048      

(xa.53)   14.0000  (xa.54)  -14.0000  (xa.90)    1.4692  (xa.91)   40.0000      

(xa.92)  -40.0000  (xa.99)    0.0000  




    VOLTAGE SOURCE CURRENTS
    NAME         CURRENT

    vp          -1.658E-03
    vn           1.667E-03
    vs          -1.595E-07
    xa.vb       -8.755E-06
    xa.vc       -9.275E-06
    xa.ve        2.860E-11
    xa.vlim      1.469E-03
    xa.vlp      -3.853E-11
    xa.vln      -4.147E-11

    TOTAL POWER DISSIPATION   4.99E-02  WATTS



          JOB CONCLUDED

          TOTAL JOB TIME             .06
