
**** 05/15/14 18:03:30 ************** PSpice Lite (Mar 2000) *****************

 Chopper


 ****     CIRCUIT DESCRIPTION


******************************************************************************



.lib nom.lib
Vdc 1 0 12
Jfet1 1 2 3 J2N3819
Vs1 2 0 pwl(0 0 20u -15 40u 0 60u -15 80u 0 100u -15 120u 0)
D1 0 3 D1N4002
L1 3 4 16m
C1 4 0 100u
R1 4 0 1k
.probe
.tran 
------$
ERROR -- Missing value
.end
