
**** 02/02/14 21:36:21 ************** PSpice Lite (Mar 2000) *****************

 NON INVERTING AMPLIFIER


 ****     CIRCUIT DESCRIPTION


******************************************************************************




.LIB EVAL.LIB
Xa 3 2 7 4 6 UA741
V1 7 0 DC 15
V2 0 4 DC 15
Ra 2 0 1K
Rf 2 6 15K
VSIN 3 0 0 100M 1K
-----------$
ERROR -- Expecting keyword STIMULUS, saw 100M.

Rl 6 0 10k
.TRAN 500U 100M 
.PROBE
.END
