
**** 02/23/14 20:15:28 ************** PSpice Lite (Mar 2000) *****************

 Schmitt Trigger Circuit


 ****     CIRCUIT DESCRIPTION


******************************************************************************



.LIB EVAL.LIB
Xa 3 2 7 4 6 UA741
R1 6 3 150K
R2 3 5 39K
Vref 5 0 2
Ron 2 1 31K
Vin 1 0 AC SIN(0 5 1K)
-----------$
ERROR -- Missing value
Rl 6 0 10K
Vp 7 0 15
Vn 0 4 15
.AC lin 1 1k 1k
*.TRAN 100u 5M
.PROBE(V(6) V(3) V(1))
.END
