
**** 03/18/14 00:20:37 ************** PSpice Lite (Mar 2000) *****************

 Voltage Controlled Oscillator


 ****     CIRCUIT DESCRIPTION


******************************************************************************



.LIB NOM.LIB
.PARAM Vcc 5V
Xa 0 6 3 8 5 6 7 8 555D
Ra 8 7 48K
Rb 7 6 48K
C 6 0 0.01U
C1 5 0 0.01U
Vc 8 0 5
Rl 3 0 10K
Vcc1 5 0 {Vcc}
.STEP PARAM Vcc1 5 20 1
.TRAN 1u 1m
.PROBE
.END


ERROR -- Undefined parameter: Vcc1