
**** 03/24/14 01:17:43 ************** PSpice Lite (Mar 2000) *****************

 Band Reject Filter


 ****     CIRCUIT DESCRIPTION


******************************************************************************



.LIB EVAL.LIB
Xa 3 2 7 4 6 UA 741
Ra 1 5 1K
Ca 5 0 2U
Rb 5 3 1K
Cb 1 8 1U
Cc 8 3 1U
Rc 8 6 0.5K
R2 6 2 0.9K
R1 2 0 1K
Vin 1 0 SIN(0 100M 50)
.PROBE
.TRAN 100U 5M
.END

ERROR -- Subcircuit 741 used by Xa is undefined